[TITLE]
;;Project Title/Notes

[OPTIONS]
;;Option             Value
FLOW_UNITS           CMS
INFILTRATION         MODIFIED_GREEN_AMPT
FLOW_ROUTING         KINWAVE
LINK_OFFSETS         DEPTH
MIN_SLOPE            0
ALLOW_PONDING        NO
SKIP_STEADY_STATE    NO

START_DATE           09/08/2022
START_TIME           00:00:00
REPORT_START_DATE    09/08/2022
REPORT_START_TIME    00:00:00
END_DATE             09/08/2022
END_TIME             23:59:00
SWEEP_START          01/01
SWEEP_END            12/31
DRY_DAYS             0
REPORT_STEP          00:15:00
WET_STEP             00:05:00
DRY_STEP             01:00:00
ROUTING_STEP         0:01:00
RULE_STEP            00:00:00

INERTIAL_DAMPING     PARTIAL
NORMAL_FLOW_LIMITED  BOTH
FORCE_MAIN_EQUATION  H-W
VARIABLE_STEP        0.75
LENGTHENING_STEP     0
MIN_SURFAREA         1.167
MAX_TRIALS           8
HEAD_TOLERANCE       0.0015
SYS_FLOW_TOL         5
LAT_FLOW_TOL         5
MINIMUM_STEP         0.5
THREADS              1

[EVAPORATION]
;;Data Source    Parameters
;;-------------- ----------------
CONSTANT         0.0
DRY_ONLY         NO

[RAINGAGES]
;;Name           Format    Interval SCF      Source
;;-------------- --------- ------ ------ ----------
G1               INTENSITY 1:00     1.0      TIMESERIES RTS1

[SUBCATCHMENTS]
;;Name           Rain Gage        Outlet           Area     %Imperv  Width    %Slope   CurbLen  SnowPack
;;-------------- ---------------- ---------------- -------- -------- -------- -------- -------- ----------------
S1               G1               J2               0.25     75       35       0.5      0
S2               G1               J4               0.25     75       35       0.5      0
S3               G1               J1               0.25     75       35       0.5      0
S4               G1               J3               0.25     75       35       0.5      0

[SUBAREAS]
;;Subcatchment   N-Imperv   N-Perv     S-Imperv   S-Perv     PctZero    RouteTo    PctRouted
;;-------------- ---------- ---------- ---------- ---------- ---------- ---------- ----------
S1               0.01       0.1        0.05       0.05       25         OUTLET
S2               0.01       0.1        0.05       0.05       25         OUTLET
S3               0.01       0.1        0.05       0.05       25         OUTLET
S4               0.01       0.1        0.05       0.05       25         OUTLET

[INFILTRATION]
;;Subcatchment   Param1     Param2     Param3     Param4     Param5
;;-------------- ---------- ---------- ---------- ---------- ----------
S1               3.5        0.5        0.25
S2               3.5        0.5        0.25
S3               3.5        0.5        0.25
S4               3.5        0.5        0.25

[JUNCTIONS]
;;Name           Elevation  MaxDepth   InitDepth  SurDepth   Aponded
;;-------------- ---------- ---------- ---------- ---------- ----------
J1               92.75      2          0          0          0
J2               92.6       2.1        0          0          0
J3               92.7       2          0          0          0
J4               92.5       2.1        0          0          0

[OUTFALLS]
;;Name           Elevation  Type       Stage Data       Gated    Route To
;;-------------- ---------- ---------- ---------------- -------- ----------------
O1               92.3       FREE                        NO

[CONDUITS]
;;Name           From Node        To Node          Length     Roughness  InOffset   OutOffset  InitFlow   MaxFlow
;;-------------- ---------------- ---------------- ---------- ---------- ---------- ---------- ---------- ----------
C1               J1               J2               50         0.01       0          0          0          0
C2               J2               O1               35         0.01       0          0          0          0
C3               J3               J4               50         0.01       0          0          0          0
C4               J4               O1               35         0.01       0          0          0          0

[XSECTIONS]
;;Link           Shape        Geom1            Geom2      Geom3      Geom4      Barrels    Culvert
;;-------------- ------------ ---------------- ---------- ---------- ---------- ---------- ----------
C1               CIRCULAR     0.25             0          0          0          1
C2               CIRCULAR     0.50             0          0          0          1
C3               CIRCULAR     0.25             0          0          0          1
C4               CIRCULAR     0.50             0          0          0          1

[TIMESERIES]
;;Name           Date       Time       Value
;;-------------- ---------- ---------- ----------
RTS1                        1          0
RTS1                        2          50
RTS1                        3          100
RTS1                        4          150
RTS1                        5          100
RTS1                        6          50
RTS1                        7          0

[REPORT]
;;Reporting Options
SUBCATCHMENTS ALL
NODES ALL
LINKS ALL

[TAGS]

[MAP]
DIMENSIONS -2.755 0.000 1002.755 1000.000
Units      Meters

[COORDINATES]
;;Node           X-Coord            Y-Coord
;;-------------- ------------------ ------------------
J1               25.000            75.000
J2               25.000            25.000
J3               75.000            75.000
J4               75.000            25.000
O1               50.000            0.000

[VERTICES]
;;Link           X-Coord            Y-Coord
;;-------------- ------------------ ------------------

[Polygons]
;;Subcatchment   X-Coord            Y-Coord
;;-------------- ------------------ ------------------
S1               0.000             0.000
S1               50.000            0.000
S1               50.000            50.000
S1               0.000             50.000
S2               50.000            0.000
S2               100.000           0.000
S2               100.000           50.000
S2               50.000            50.000
S3               0.000             50.000
S3               50.000            50.000
S3               50.000            100.000
S3               0.000             100.000
S4               50.000            50.000
S4               100.000           50.000
S4               100.000           100.000
S4               50.000            100.000

[SYMBOLS]
;;Gage           X-Coord            Y-Coord
;;-------------- ------------------ ------------------
G1               110.000           110.000
