[TITLE]
;;Project Title/Notes
tutorial example again

[OPTIONS]
;;Option             Value
FLOW_UNITS           CFS
INFILTRATION         MODIFIED_GREEN_AMPT
FLOW_ROUTING         DYNWAVE
LINK_OFFSETS         DEPTH
MIN_SLOPE            0
ALLOW_PONDING        NO
SKIP_STEADY_STATE    NO

START_DATE           05/25/2022
START_TIME           00:00:00
REPORT_START_DATE    05/25/2022
REPORT_START_TIME    00:00:00
END_DATE             05/25/2022
END_TIME             12:00:00
SWEEP_START          01/01
SWEEP_END            12/31
DRY_DAYS             0
REPORT_STEP          00:15:00
WET_STEP             00:05:00
DRY_STEP             01:00:00
ROUTING_STEP         0:01:00
RULE_STEP            00:00:00

INERTIAL_DAMPING     PARTIAL
NORMAL_FLOW_LIMITED  BOTH
FORCE_MAIN_EQUATION  H-W
VARIABLE_STEP        0.75
LENGTHENING_STEP     0
MIN_SURFAREA         12.557
MAX_TRIALS           8
HEAD_TOLERANCE       0.005
SYS_FLOW_TOL         5
LAT_FLOW_TOL         5
MINIMUM_STEP         0.5
THREADS              1

[EVAPORATION]
;;Data Source    Parameters
;;-------------- ----------------
CONSTANT         0.0
DRY_ONLY         NO

[RAINGAGES]
;;Name           Format    Interval SCF      Source
;;-------------- --------- ------ ------ ----------
G1               INTENSITY 1:00     1.0      TIMESERIES TS1

[SUBCATCHMENTS]
;;Name           Rain Gage        Outlet           Area     %Imperv  Width    %Slope   CurbLen  SnowPack
;;-------------- ---------------- ---------------- -------- -------- -------- -------- -------- ----------------
S1               G1               J1               4        50       400      0.5      0
S2               G1               J2               4        50       400      0.5      0
S3               G1               J3               4        25       400      0.5      0

[SUBAREAS]
;;Subcatchment   N-Imperv   N-Perv     S-Imperv   S-Perv     PctZero    RouteTo    PctRouted
;;-------------- ---------- ---------- ---------- ---------- ---------- ---------- ----------
S1               0.01       0.1        0.05       0.05       25         OUTLET
S2               0.01       0.1        0.05       0.05       25         OUTLET
S3               0.01       0.1        0.05       0.05       25         OUTLET

[INFILTRATION]
;;Subcatchment   Param1     Param2     Param3     Param4     Param5
;;-------------- ---------- ---------- ---------- ---------- ----------
S1               3.5        0.5        0.26
S2               3.5        0.5        0.26
S3               3.5        0.5        0.26

[JUNCTIONS]
;;Name           Elevation  MaxDepth   InitDepth  SurDepth   Aponded
;;-------------- ---------- ---------- ---------- ---------- ----------
J1               96         4          0          0          0
J2               90         4          0          0          0
J3               93         4          0          0          0
J4               88         4          0          0          0

[OUTFALLS]
;;Name           Elevation  Type       Stage Data       Gated    Route To
;;-------------- ---------- ---------- ---------------- -------- ----------------
O1               85         FREE                        NO

[CONDUITS]
;;Name           From Node        To Node          Length     Roughness  InOffset   OutOffset  InitFlow   MaxFlow
;;-------------- ---------------- ---------------- ---------- ---------- ---------- ---------- ---------- ----------
C1               J1               J2               400        0.01       0          0          0          0
C2               J2               J4               400        0.01       0          0          0          0
C3               J3               J4               400        0.01       0          0          0          0
C4               J4               O1               400        0.01       0          0          0          0

[XSECTIONS]
;;Link           Shape        Geom1            Geom2      Geom3      Geom4      Barrels    Culvert
;;-------------- ------------ ---------------- ---------- ---------- ---------- ---------- ----------
C1               CIRCULAR     1                0          0          0          1
C2               CIRCULAR     1                0          0          0          1
C3               CIRCULAR     1                0          0          0          1
C4               CIRCULAR     1.5              0          0          0          1

[TIMESERIES]
;;Name           Date       Time       Value
;;-------------- ---------- ---------- ----------
TS1                         0          0
TS1                         1          1.0
TS1                         2          2
TS1                         3          1.5
TS1                         4          1
TS1                         5          0.5
TS1                         6          0

[REPORT]
;;Reporting Options
SUBCATCHMENTS ALL
NODES ALL
LINKS ALL

[TAGS]

[MAP]
DIMENSIONS 0.000 0.000 10000.000 10000.000
Units      None

[COORDINATES]
;;Node           X-Coord            Y-Coord
;;-------------- ------------------ ------------------
J1               9087.346           7189.250
J2               9266.517           3493.841
J3               5806.271           6819.709
J4               6007.839           3057.111
O1               3085.106           3012.318

[VERTICES]
;;Link           X-Coord            Y-Coord
;;-------------- ------------------ ------------------

[Polygons]
;;Subcatchment   X-Coord            Y-Coord
;;-------------- ------------------ ------------------
S1               6679.731           6730.123
S1               8180.291           6808.511
S1               8146.697           8219.485
S1               6690.929           8208.287
S2               6802.912           4008.959
S2               8538.634           4076.148
S2               8505.039           5599.104
S2               6870.101           5509.518
S3               3633.768           6397.067
S3               5515.118           6808.511
S3               5307.951           8160.694
S3               3964.166           8149.496

[SYMBOLS]
;;Gage           X-Coord            Y-Coord
;;-------------- ------------------ ------------------
G1               3230.683           6853.303
